resultados/_temp_alt0_1p00/LineSummary.csv
line,maxCurrentA,normAmps,maxLoadingPct,meanLoadingPct,overloadHours
rbt_1607347,93.04161323740566,124.95,74.46307582025263,25.70960838848697,0
sbt_7584,93.04162336891534,163.8,56.80196786869068,19.611818249556308,0
sbt_22840,93.04161872886668,163.8,56.80196503593814,19.611818172773138,0
rbt_630758,31.60082263152523,76.65,41.22742678607336,17.134879738498565,0
rbt_637576,24.914991816155258,61.95,40.21790446514166,14.45870654679029,0
rbt_606147,25.623420881749116,76.65,33.429120524134525,12.229270462193112,0
rbt_632607,40.7988214099289,124.95,32.65211797513317,15.358409418573745,0
rbt_637918,17.93049451113902,61.95,28.943493964711898,11.127377046424726,0
rbt_1130761,25.380585444392047,90.3,28.10696062501888,13.226014873608689,0
rbt_1607350,22.129881532007634,90.3,24.507067034338466,8.725282481797793,0
rbt_605836,21.546719786246808,90.3,23.86126222175726,11.237082255571183,0
rbt_637360,14.723636621486694,61.95,23.766967912004347,11.166144346531121,0
rbt_606126,13.628559396988253,61.95,21.999288776413646,7.756430309387753,0
rbt_1633671,13.465517174770682,61.95,21.73610520544097,9.737428572250797,0
rbt_3405844,18.992002522146727,90.3,21.032117964725057,7.21204088550066,0
rbt_626476,12.7271789834495,61.95,20.54427600233979,9.66494038554602,0
rbt_606143,14.945263217082537,76.65,19.498060296259016,6.840632432440505,0
rbt_3435739,13.540322287384875,76.65,17.665130185759782,7.9318472204378265,0
rbt_635862,10.801987615368127,61.95,17.436622462256864,5.951720736926642,0
rbt_605816,10.292764660222733,61.95,16.61463221989142,6.139815876021964,0
rbt_1627323,12.526264818298817,76.65,16.3421589279828,7.6877515131069885,0
sbt_34378,20.5654425476592,128.1,16.05420963907822,7.876402988558227,0
sbt_34379,20.50123316450276,128.1,16.004085218191072,7.763334998189795,0
rbt_637397,9.767135675342393,61.95,15.766159282231465,7.410081035880059,0
sbt_24791,25.62344222884464,163.8,15.643127123836775,5.722672080639714,0
sbt_3174,25.623433334319724,163.8,15.643121693723886,5.722673695812968,0
rbt_609688,11.267894017211814,76.65,14.700448815670988,5.271776227004254,0
smt_19119,21.142185676049635,163.8,12.907317262545565,7.803734327049539,0
smt_29422,21.14171516741391,163.8,12.907030016736206,7.803931668722734,0
smt_17184,21.14109073236798,163.8,12.906648798759452,7.803327178417558,0
rbt_606139,9.38357592243175,76.65,12.242108183211675,4.3430435563022245,0
rbt_623004,7.332319423496485,61.95,11.835866704594808,4.5139977173213035,0
rbt_1638954,7.1515218586247835,61.95,11.544022370661475,5.425912756209935,0
rbt_1607265,10.051267704015801,90.3,11.130971986728461,5.237828422989394,0
sbt_11363,18.218302587001684,163.8,11.122284851649379,4.075241462099218,0
sbt_9361,21.54671982536166,216.3,9.961497838817225,4.6912090627826,0
rbt_635543,5.871631580167652,61.95,9.478017078559569,3.67855921325782,0
rbt_606121,5.803884493789919,61.95,9.368659392719804,4.4018812128194815,0
rbt_1605991,5.551437289174753,61.95,8.961157851775226,4.212764089009721,0
rbt_1607280,5.5065478355191315,61.95,8.888697071055903,4.177254478036785,0
sbt_34393,11.080770760167207,128.1,8.650094270232012,5.686666112843994,0
rbt_606114,7.52939165564811,90.3,8.338196739366678,3.9191404673160175,0
rbt_627337,7.329800747815124,90.3,8.117165833682307,3.8167143384221713,0
rbt_1621994,7.188688826865978,90.3,7.960895710815037,3.74097864050375,0
rbt_626678,7.025906096467878,90.3,7.780626906387463,3.6588553080360686,0
rbt_606150,4.7798087634666135,61.95,7.715591224320603,3.6246238736097443,0
rbt_1607272,6.882418560628898,90.3,7.6217259807629,3.585795480860709,0
rbt_623007,4.701305829890732,61.95,7.588871396110947,3.565572900299413,0
sbt_22748,16.28192375375381,216.3,7.527472840385487,3.5415610940379616,0
sbt_7427,16.281915489603332,216.3,7.527469019696407,3.5415571573854687,0
sbt_34383,9.63211382689092,128.1,7.519214540898456,4.428803711048087,0
sbt_34392,9.632110667425504,128.1,7.519212074492978,4.713379682498885,0
sbt_34384,9.619680455969293,128.1,7.509508552669238,3.627004019734004,0
rbt_1630759,5.691983150567289,76.65,7.425940183388505,3.492715762242361,0
rbt_606122,4.595989207047987,61.95,7.4188687765100685,3.48694078891414,0
rbt_1229546,6.672129358627544,90.3,7.3888475732309455,3.4745473871436743,0
smt_34713,21.128969961591405,286.65,7.370999463314637,4.456491163796531,0
smt_34700,21.12882795124752,286.65,7.370949921942271,4.45646149797778,0
smt_34701,21.12849156744362,286.65,7.37083257193219,4.456391250243404,0
smt_34715,21.128203923270767,286.65,7.370732225107542,4.4563312061132025,0
smt_34702,21.12791903339703,286.65,7.370632839140775,4.456271759830955,0
smt_34703,21.127528815295292,286.65,7.370496708632582,4.456190372366151,0
smt_34704,21.12705973794278,286.65,7.370333067483964,4.456092593868195,0
smt_34716,21.126766578316523,286.65,7.370230796552075,4.456031516542382,0
smt_34705,21.12647184045972,286.65,7.370127975042637,4.4559701347745175,0
smt_34717,21.126120650363333,286.65,7.370005459746497,4.45589702820939,0
smt_34706,21.125765089836577,286.65,7.36988141979298,4.455823047163071,0
smt_34707,21.125346468359847,286.65,7.36973538055463,4.455735990646148,0
smt_34708,21.12495645825955,286.65,7.3695993226092975,4.455654928477718,0
smt_34709,21.124453182307064,286.65,7.369423751022873,4.455550387647717,0
smt_34718,21.124172836396383,286.65,7.369325950251661,4.455492184896259,0
smt_34710,21.12389869059718,286.65,7.369230312435786,4.455435290713473,0
smt_34719,21.123611975021234,286.65,7.369130289559127,4.455375810527912,0
smt_34711,21.12332619637446,286.65,7.369030593537228,4.455316547716569,0
smt_34720,21.12300037086933,286.65,7.368916926868771,4.455249008342029,0
smt_34712,21.1226997944638,286.65,7.368812068537868,4.455186729257648,0
smt_34721,21.122484125763112,286.65,7.368736830895905,4.455142058658809,0
smt_34714,21.122475261165516,286.65,7.368733738414623,4.455140222618877,0
rbt_1638606,4.5509835562739624,61.95,7.346220429820763,3.453830457187655,0
rbt_605905,6.511190368662742,90.3,7.210620563303148,3.3894535379279276,0
rbt_1607283,6.447304419322,90.3,7.139872003678849,3.358482786546393,0
smt_31417,22.588814001215734,327.6,6.895242369113472,4.192514400723671,0
smt_31416,22.58876962191101,327.6,6.895228822317158,4.192506249242907,0
smt_31411,22.5887527102431,327.6,6.895223660025366,4.19250314310495,0
smt_31412,22.588733571703333,327.6,6.895217817980259,4.192499628053409,0
smt_31413,22.588620092598866,327.6,6.895183178448981,4.192478787662535,0
smt_31414,22.588534816290572,327.6,6.895157147829845,4.1924631285123555,0
smt_31415,22.588318738591205,327.6,6.895091190046156,4.192423457660103,0
smt_4387,22.58796341344912,327.6,6.89498272693807,4.192358243959765,0
smt_4863,22.587553449822707,327.6,6.8948575854159655,4.192283036798647,0
smt_4693,22.587209532167442,327.6,6.894752604446716,4.192219974106784,0
smt_4591,22.586895249165696,327.6,6.894656669464498,4.192162368150866,0
smt_17964,22.5866519696634,327.6,6.894582408322162,4.182923719877892,0
smt_4627,22.586561736147537,327.6,6.894554864513899,4.1921012611982915,0
smt_4527,22.586294983591582,327.6,6.894473438214768,4.192052403833471,0
smt_6826,22.586223968246834,327.6,6.894451760759106,4.182844649102832,0
smt_23134,22.58586135696989,327.6,6.894341073556132,4.191973015870423,0
smt_7012,22.585729945561173,327.6,6.894300960183508,4.182753431342287,0
smt_18545,22.585472588064526,327.6,6.894222401729098,4.19190187552847,0
smt_22791,22.585287280480557,327.6,6.894165836532526,4.182671741970096,0
smt_10381,22.585060724483156,327.6,6.8940966802451635,4.19182654542831,0
smt_18806,22.584852669096566,327.6,6.894033171274898,4.191788506100294,0
smt_24122,22.584784957559272,327.6,6.89401250230747,4.1917761286385735,0
smt_7020,22.584770568866347,327.6,6.894008110154562,4.182576442536846,0
smt_6842,22.58437300408764,327.6,6.893886753384505,4.182503157848251,0
smt_6830,22.5837699229734,327.6,6.893702662690291,4.182392055853088,0
smt_29390,22.583412372206123,327.6,6.893593520209438,4.182121893872864,0
smt_31407,22.583044642938656,327.6,6.893481270738295,4.182258547832181,0
smt_17776,22.582828165229696,327.6,6.893415190851555,4.182013009333482,0
smt_31408,22.582600505044216,327.6,6.893345697510443,4.191028275635527,0
smt_10747,22.582233722557692,327.6,6.893233737044473,4.181902293825108,0
smt_18202,22.58171754557455,327.6,6.893076173862804,4.181806218163505,0
smt_17794,22.581238588288695,327.6,6.8929299720050965,4.181717122400676,0
smt_29420,22.580942660965597,327.6,6.892839640099388,4.181662099082934,0
smt_22739,22.5807697261952,327.6,6.892786851707935,4.181629953274781,0
smt_17795,22.580199544529915,327.6,6.89261280358056,4.181524012087407,0
smt_29389,22.579563492111195,327.6,6.89241864838559,4.18140591604496,0
smt_19163,22.579015463541133,327.6,6.8922513624972925,4.181304234542968,0
smt_17961,22.578666201501033,327.6,6.89214475015294,4.181239466660464,0
smt_29388,22.578263410313582,327.6,6.892021798020019,4.181164805408472,0
smt_17962,22.577768389912972,327.6,6.891870692891628,4.181073097311159,0
rbt_1107340,6.173450004960259,90.3,6.836600226977032,3.216827365796499,0
rbt_605822,6.172921946782269,90.3,6.836015444941605,3.2166808274996175,0
rbt_1626486,6.16906989387374,90.3,6.83174960561876,3.210248664399811,0
rbt_1607287,6.166438368596945,90.3,6.828835402654425,3.2118022984947387,0
rbt_606132,4.123014267216655,61.95,6.655390261850937,3.1270105168632374,0
rbt_623433,5.972000621482162,90.3,6.613511208728862,3.111334143220027,0
rbt_626698,5.930058357437662,90.3,6.567063518757102,3.0863999453215527,0
rbt_1607252,4.997246274609835,76.65,6.519564611363124,3.0657190231267695,0
smt_6447,21.193622212240697,327.6,6.4693596496461225,3.9137596720483887,0
smt_6627,21.19326064986249,327.6,6.469249282619807,3.913695202423392,0
smt_24630,21.192684266032227,327.6,6.469073341279678,3.913592494892544,0
smt_24629,21.192328642696587,327.6,6.46896478714792,3.913529166127057,0
smt_24628,21.191854539824995,327.6,6.468820067101647,3.9134447871978733,0
smt_24627,21.191502570453686,327.6,6.468712628343616,3.913382180892379,0
smt_6957,21.191173329365242,327.6,6.468612127400868,3.913323645018975,0
smt_6431,21.190763605591528,327.6,6.468487059093872,3.913250837398699,0
smt_24626,21.190422652147866,327.6,6.468382982951118,3.913190281796336,0
smt_12228,21.190051961726518,327.6,6.468269829586848,3.9131244771659204,0
smt_6510,21.148489873546957,327.6,6.455582989483198,3.9031810243646525,0
smt_19223,21.147989071623844,327.6,6.455430119543297,3.9030908068759267,0
smt_22843,21.14756282807769,327.6,6.455300008570723,3.9030140695081115,0
smt_6737,21.1471910696417,327.6,6.455186529194658,3.902947177802338,0
smt_24665,21.146706659320607,327.6,6.455038662796278,3.9028600674310923,0
smt_24635,21.14620625328533,327.6,6.454885913701261,3.9027701414061102,0
smt_24637,21.14568850332058,327.6,6.454727870366478,3.9026771636506976,0
smt_24636,21.14518222559168,327.6,6.454573328935188,3.902586310081275,0
smt_19174,21.144721305048655,327.6,6.454432632798735,3.9025036510911026,0
smt_6686,21.144177596755615,327.6,6.454266665676317,3.9024062128566297,0
smt_19173,21.143263385463065,327.6,6.453987602400203,3.9022425412493447,0
smt_19172,21.142954489963326,327.6,6.453893311954618,3.902187286259405,0
smt_6544,21.142617445405268,327.6,6.453790429000386,3.9021270228938305,0
smt_6535,21.142119295104283,327.6,6.45363836846895,3.9020380053380315,0
smt_24511,21.141694927943576,327.6,6.453508830263606,3.9017758862476377,0
smt_29446,21.141077534539424,327.6,6.4533203707385285,3.901661137349208,0
smt_24634,21.14103043800359,327.6,6.45330599450659,3.9018436435817256,0
smt_32671,21.14067038467826,327.6,6.4531960881191255,3.901585515631101,0
smt_24633,21.140641919053657,327.6,6.453187398978527,3.901774363010422,0
smt_24632,21.140224003232067,327.6,6.453059830046418,3.9016998821167106,0
smt_6389,21.14022098298788,327.6,6.453058908115958,3.9015020932563407,0
smt_24510,21.140207179617338,327.6,6.453054694632887,3.901499531901138,0
smt_1873,21.13981270871648,327.6,6.452934282269987,3.901626623475721,0
smt_24509,21.139729410193954,327.6,6.452908855370559,3.9014108999878765,0
smt_24631,21.139444188332927,327.6,6.452821791310417,3.9015610191939207,0
smt_24508,21.13931064133999,327.6,6.452781026050057,3.9013332595045966,0
smt_6527,21.13906134789425,327.6,6.4527049291496485,3.9014929012397377,0
smt_6426,21.138933149554678,327.6,6.452665796567361,3.901263308804641,0
smt_6420,21.138548301620318,327.6,6.452548321617924,3.9011920310245567,0
smt_6140,21.138132459635273,327.6,6.452421385725052,3.901115053787447,0
smt_6653,21.13773583892003,327.6,6.452300317130656,3.9010416742243623,0
smt_6650,21.137345057387847,327.6,6.452181030948672,3.900969412807378,0
smt_29445,21.136961746200043,327.6,6.4520640250915875,3.9008985692788936,0
smt_24507,21.136567443939875,327.6,6.451943664206311,3.9008257320898614,0
smt_24506,21.136174505372182,327.6,6.451823719588577,3.900753184837027,0
smt_24505,21.135769038608167,327.6,6.451699950735093,3.9006783643809686,0
smt_24459,21.135421152581248,327.6,6.451593758419184,3.900614201493587,0
smt_24458,21.13500214420534,327.6,6.4514658559845355,3.900536960622322,0
smt_24457,21.13458053875608,327.6,6.451337160792453,3.9004592846082624,0
smt_24456,21.134192878618354,327.6,6.45121882741708,3.900387901264816,0
smt_24455,21.133794929298624,327.6,6.451097353265759,3.9003146617892495,0
smt_24454,21.13341316448118,327.6,6.4509808194386995,3.9002444375935545,0
smt_19165,21.132991655912075,327.6,6.450852153819314,3.9001669443870384,0
smt_17113,21.132550959730256,327.6,6.450717631175292,3.9000859703952884,0
smt_6993,21.131584191916968,327.6,6.4504225250051785,3.899908503119017,0
smt_24453,21.130997641206243,327.6,6.450243480221686,3.899800943661384,0
smt_24452,21.13054368458752,327.6,6.450104909825249,3.8997177569654338,0
smt_24451,21.13014584459687,327.6,6.449983469046663,3.8996448952783864,0
smt_24450,21.129770055669812,327.6,6.449868759361969,3.899576107905885,0
smt_6394,21.129358959947176,327.6,6.449743272267147,3.8995008975870458,0
smt_24668,21.122465015399744,327.6,6.447638893589665,3.8982458385390246,0
smt_29393,21.122304206438308,327.6,6.4475898066051,3.8982167024344907,0
smt_19218,21.120952802634278,327.6,6.447177290181403,3.897972101335107,0
smt_6502,21.12048259275261,327.6,6.447033758471492,3.8978871000997715,0
smt_24667,21.120236878226613,327.6,6.446958754037427,3.8978427032592897,0
smt_6683,21.11957626155997,327.6,6.4467571005982816,3.8977234139564794,0
smt_19220,21.119040269299706,327.6,6.446593488797224,3.8976267076271136,0
smt_22844,21.118667528034297,327.6,6.446479709412179,3.897559497680963,0
smt_6687,21.11825797248139,327.6,6.446354692454637,3.897485689237582,0
smt_24666,21.117950942516387,327.6,6.446260971464097,3.8974303847398777,0
rbt_637356,3.905494293945384,61.95,6.304268432518779,2.963286503732594,0
rbt_631391,5.621649849614696,90.3,6.225525857823584,4.714744033283486,0
sbt_28279,13.465529379328524,216.3,6.225394997377958,2.7888754982322275,0
sbt_20214,13.465521928823835,216.3,6.225391552854292,2.7888755566110763,0
rbt_605855,4.635474133191254,76.65,6.047585300967063,2.8443814471038387,0
rbt_1607255,5.413564842485735,90.3,5.995088419142564,2.8180154130200457,0
rbt_636933,4.5071579367547345,76.65,5.880179956627181,2.7666009868326085,0
rbt_605910,3.540027792956294,61.95,5.714330577814842,2.68435326703127,0
rbt_627343,5.125890406286572,90.3,5.676512077836736,2.667320327661928,0
rbt_1607304,3.4434752336451506,61.95,5.558474953422357,2.610599866121936,0
rbt_1607305,4.865786883780789,90.3,5.388468309834761,2.5332008120512413,0
rbt_1607285,3.304503025571941,61.95,5.3341453197287185,2.5047295929498024,0
rbt_606103,4.0160799988090865,76.65,5.239504238498482,2.4627928223297046,0
rbt_3405846,4.003199806274943,76.65,5.222700334344348,2.4557650815537713,0
rbt_606109,3.1880617018738153,61.95,5.146185152338685,2.4176583018378905,0
rbt_605825,4.646240140530203,90.3,5.1453379186380985,2.419302828722667,0
sbt_4580,8.358246405234878,163.8,5.102714533110426,2.4007549717167356,0
rbt_1631852,4.598924007581202,90.3,5.092939100311408,2.393750273283597,0
rbt_605993,4.572185155197846,90.3,5.063327968103927,2.379500444019634,0
rbt_621999,4.538846554185601,90.3,5.026408144170101,2.3625430671068677,0
rbt_630753,4.536422281924369,90.3,5.023723457280586,2.3623482563474356,0
sbt_6049,8.198577201783666,163.8,5.005236386925314,2.3551026076513857,0
rbt_607384,3.002673168827331,61.95,4.846930054604247,2.2773006481982097,0
rbt_1607278,3.7087691844734882,76.65,4.838576887767108,2.2734674373888795,0
rbt_1628760,4.355543676526043,90.3,4.82341492417059,2.26627648281741,0
rbt_3433894,4.331603857902173,90.3,4.7969034971231155,2.255141166488998,0
rbt_1607357,3.6539799180701396,76.65,4.767097088154128,2.2404363344199436,0
sbt_25907,10.29278914127768,216.3,4.758571031566195,1.7584906306062769,0
sbt_21361,10.29278241154626,216.3,4.758567920271039,1.7584907308639794,0
sbt_20771,10.292777037550715,216.3,4.758565435760849,1.7584928829449549,0
smt_6110,15.41264266817709,327.6,4.704713879174935,2.7223648501284186,0
smt_6802,14.936801379092191,327.6,4.559463180431072,2.728284754668586,0
smt_24514,14.93626525998377,327.6,4.559299529909575,2.728166379502101,0
smt_24513,14.935708528639378,327.6,4.5591295874967575,2.7280435427083307,0
smt_19166,14.935271703838566,327.6,4.558996246592969,2.727947225946149,0
smt_6414,14.934845326405215,327.6,4.558866094751286,2.7278532669869104,0
smt_18852,14.93441382438943,327.6,4.558734378629252,2.7277582333276356,0
smt_6403,14.933935071915851,327.6,4.558588239290552,2.727652857574462,0
smt_1832,14.93351890825846,327.6,4.5584612052071,2.7275613128912446,0
smt_1831,14.933113490592813,327.6,4.558337451340908,2.7274721812466676,0
smt_1829,14.932317608216216,327.6,4.558094508002507,2.72729734673123,0
smt_1828,14.931741541696724,327.6,4.557918663521588,2.7271709169413256,0
smt_24515,14.839162513954095,327.6,4.529658887043374,2.6803314595211116,0
smt_6552,14.838786774314013,327.6,4.529544192403544,2.6802475031001194,0
smt_6549,14.83829034777379,327.6,4.529392658050607,2.6801366452765527,0
smt_23959,14.837856893299179,327.6,4.52926034593992,2.680039910625101,0
smt_22744,14.837336930142055,327.6,4.529101627027489,2.6799239444991856,0
smt_19175,14.836904508645247,327.6,4.528969630233592,2.6798275647731504,0
smt_19177,14.836412164967964,327.6,4.5288193421758125,2.6797178981722483,0
smt_19176,14.835894761037423,327.6,4.528661404468077,2.6796027285424713,0
smt_19164,14.835669490894265,327.6,4.528592640688115,2.679552610661137,0
smt_32311,14.835281883501935,327.6,4.528474323413289,2.679466412133704,0
smt_39119,14.834816993483681,327.6,4.528332415593309,2.679363087043745,0
smt_32312,14.834795167508949,327.6,4.528325753207859,2.6793582379223664,0
smt_32310,14.834777369203273,327.6,4.52832032026962,2.6793542832353214,0
smt_32309,14.834347215586948,327.6,4.528189015746931,2.6792587421279896,0
smt_32314,14.834150564876115,327.6,4.528128988057422,2.6792150821468037,0
smt_32313,14.834135628805223,327.6,4.528124428817223,2.679211767114245,0
smt_6350,14.761206518942195,327.6,4.505862795769901,2.665612727691776,0
smt_24517,14.759093070990629,327.6,4.505217665137554,2.665370234826576,0
smt_24520,14.758445467112553,327.6,4.50501998385609,2.6652254605147676,0
smt_19116,14.758139695330796,327.6,4.504926646926372,2.6651571482207586,0
rbt_605806,3.991268822998569,90.3,4.420009770762536,2.0771013797468925,0
rbt_622714,3.931228027983376,90.3,4.353519410834304,2.0469853142123022,0
rbt_1607258,3.2865488910102636,76.65,4.287735017625914,2.0162354405987535,0
rbt_627328,3.838094886849711,90.3,4.250381934495804,2.0002447218607764,0
smt_6066,6.944497339135628,163.8,4.239619865162165,2.3942485274196934,0
smt_6062,6.944120994796052,163.8,4.2393901067130955,2.3942258324657106,0
smt_6719,6.94370541575125,163.8,4.239136395452533,2.3942024315432433,0
smt_6176,6.943236895041537,163.8,4.238850363273221,2.3941666046251995,0
smt_6144,6.942799300778698,163.8,4.238583211708606,2.3941399612047887,0
smt_6227,6.942335384236126,163.8,4.238299990376145,2.394107411241381,0
smt_19063,6.941887147276717,163.8,4.238026341438776,2.3940778528979108,0
smt_6092,6.941442871831715,163.8,4.237755111008372,2.39404267095474,0
smt_29474,6.941057974308485,163.8,4.237520130835461,2.3940240673146227,0
smt_29473,6.9406271047447285,163.8,4.237257084703741,2.393997787822665,0
smt_19115,6.940196056098296,163.8,4.2369939292419385,2.393960957548524,0
smt_24512,6.939856198107842,163.8,4.236786445731283,2.3939015510823825,0
sbt_5830,6.894650194755237,163.8,4.209188153086226,1.9802958724820308,0
smt_37840,6.849862668646633,163.8,4.18184534105411,2.3707051884412427,0
smt_6474,6.849555243141005,163.8,4.181657657595241,2.3706885463728975,0
smt_19061,6.849174418459526,163.8,4.181425163894705,2.370658003033808,0
smt_29476,6.848802367029318,163.8,4.181198026269425,2.370638228572228,0
smt_6594,6.848348075825119,163.8,4.180920681211917,2.3706044774284853,0
smt_29475,6.8478900257174224,163.8,4.180641041341528,2.370563817488048,0
smt_19011,6.847495204489819,163.8,4.180400002741037,2.3705414672696787,0
smt_19014,6.847042628061631,163.8,4.1801237045553306,2.3705087358156582,0
rbt_621168,3.193085204603361,76.65,4.165799353689968,1.9579851258085157,0
rbt_1107330,3.747372027077317,90.3,4.149913651248414,1.9528838812454474,0
rbt_605815,3.7471478410699524,90.3,4.149665383244687,1.9513828290769488,0
rbt_621171,2.563332095684497,61.95,4.137743495858752,1.9439566246096869,0
rbt_3422597,3.7304158015841478,90.3,4.131135992894959,1.9428319190354093,0
rbt_606127,2.544361925172644,61.95,4.107121751691112,1.9296030313124544,0
rbt_635966,2.5302500132661163,61.95,4.084342232875087,1.9191215379646154,0
rbt_1124041,3.6809874096551347,90.3,4.076398017336805,1.9170516636530932,0
rbt_605921,3.0328869373752605,76.65,3.9567996573715067,1.8598903504284887,0
sbt_14007,6.447304132316164,163.8,3.936083108862127,1.8514710976710083,0
sbt_4118,11.267901547615665,286.65,3.9308918707886504,1.4096696979112382,0
rbt_627336,3.5200134435967763,90.3,3.8981322741935505,1.831587868126566,0
rbt_1627321,3.5067147577062805,90.3,3.8834050472937767,1.8253126776473472,0
rbt_1607355,3.4923578712617322,90.3,3.867505948241121,1.8177813808212322,0
rbt_605902,2.395355260810534,61.95,3.866594448443154,1.8169472848149686,0
sbt_35173,4.865786483231847,128.1,3.7984281680186167,1.7856986108379822,0
rbt_1607358,2.908053878416405,76.65,3.7939385237004633,1.7833732387703087,0
sbt_21952,8.198576307474074,216.3,3.790372772757315,1.7834752665969598,0
sbt_20840,6.172921911525664,163.8,3.768572595559013,1.7732983446891264,0
sbt_6273,6.166438061023043,163.8,3.764614200868768,1.7706087647880249,0
rbt_3405838,3.350674444799806,90.3,3.71060292890344,1.7459401097263898,0
rbt_622273,2.132203872220584,57.75,3.6921279172650805,1.7378250942531412,0
rbt_1107341,2.284452008340911,61.95,3.6875738633428745,1.7346306243547218,0
rbt_638617,2.2752928628328335,61.95,3.6727891248310467,1.7276281075926139,0
rbt_605828,3.3103306798516337,90.3,3.66592544834068,1.7250510493277789,0
rbt_1607292,3.2465211846094393,90.3,3.595261555492181,1.6903416607287614,0
smt_6536,10.304204450267578,286.65,3.5946989186351224,2.142661793486091,0
smt_6703,10.303642606686328,286.65,3.5945029152926313,2.142543893839485,0
smt_6514,10.303091664449997,286.65,3.5943107149659856,2.142428471513172,0
smt_6984,10.303007567845167,286.65,3.594281377235363,2.1424108697674837,0
smt_5854,10.302151946715629,286.65,3.5939828873942545,2.142232034813184,0
smt_5855,10.30151091458165,286.65,3.593759258531886,2.1420983494812225,0
smt_5657,10.300985522912327,286.65,3.5935759717119584,2.1419889713810845,0
smt_21743,10.300431636981926,286.65,3.5933827444555826,2.1418738475817065,0
smt_22741,10.299864114811793,286.65,3.5931847600948177,2.1417560882078504,0
smt_6098,10.29941324372847,286.65,3.5930274703396026,2.1416626772101397,0
smt_19120,10.298890399714598,286.65,3.592845072288365,2.1415545261346067,0
smt_22740,10.298372920117625,286.65,3.592664545654152,2.1414476625429386,0
smt_22738,10.285452126610307,286.65,3.588157030040226,2.1363215191272933,0
smt_6754,10.284980025495138,286.65,3.5879923340293525,2.136222551774778,0
smt_6567,10.284500118763464,286.65,3.587824914970684,2.136122089437736,0
smt_6746,10.284023061458218,286.65,3.5876584899557717,2.136022365048547,0
smt_6812,10.283554242976052,286.65,3.5874949391160134,2.135924500489775,0
rbt_1635060,2.2030261613607154,61.95,3.5561358536896135,1.6720797903523188,0
rbt_1626490,3.211037411661754,90.3,3.555966125871267,2.6931459393452024,0
sbt_37156,5.803884279882184,163.8,3.5432748961429694,1.664813916656911,0
rbt_605867,3.1931611377811677,90.3,3.536169587797528,1.6627391044386528,0
sbt_4615,5.727731331101776,163.8,3.4967834744211084,1.6460797367829942,0
sbt_3373,5.727730111829796,163.8,3.4967827300548207,1.6460789350195808,0
sbt_20793,5.7277289941293255,163.8,3.4967820476980007,1.6460782055838468,0
sbt_4010,5.7277272640920724,163.8,3.496780991509201,1.6460770864979637,0
sbt_28804,5.727725695694892,163.8,3.496780034001765,1.6460760819474178,0
rbt_605812,3.11880074885676,90.3,3.453821427305382,1.6253106376726372,0
rbt_632613,3.1155750797105837,90.3,3.450249257708288,1.6227023765211082,0
rbt_622713,3.0992884852950118,90.3,3.4322131620099796,1.6127867620583756,0
rbt_606120,2.1161423032589988,61.95,3.4158874951719107,1.6045348444942906,0
sbt_37537,7.332350618310164,216.3,3.3898985752705335,1.2928453276341896,0
sbt_37545,7.332341955145234,216.3,3.3898945701087535,1.2928459221548458,0
sbt_37546,7.332325201250674,216.3,3.389886824433969,1.2928446815862211,0
sbt_26269,7.329800379543782,216.3,3.388719546714647,1.5933854227340811,0
sbt_37539,7.325270490755178,216.3,3.3866252846764575,1.753614554164064,0
sbt_37538,7.325264951975064,216.3,3.386622723982923,1.7536150799784072,0
rbt_1132019,3.0182382139886514,90.3,3.3424564938966244,1.5715111511788153,0
rbt_605863,3.003627746770211,90.3,3.3262765744963576,1.564344505346092,0
rbt_634166,2.5237834241077186,76.65,3.2926072069246164,1.54722682924874,0
rbt_1138614,2.0265112829520118,61.95,3.2712046536755635,1.5380114228006132,0
rbt_605803,2.916822362687686,90.3,3.230146581049486,1.5183834577081836,0
rbt_605834,2.8967558551623553,90.3,3.2079245350635164,1.5101100625325259,0
smt_29484,5.240690799132029,163.8,3.1994449323150356,1.585482761292767,0
smt_22951,5.2406772791606855,163.8,3.1994366783642767,1.5854744721389205,0
smt_19381,5.239337824144554,163.8,3.1986189402591902,1.5846544790021726,0
smt_18804,5.238640565179464,163.8,3.198193263235326,1.5842286319835346,0
smt_19380,5.237841584787918,163.8,3.197705485218509,1.5837415092371858,0
rbt_605904,1.9807385400094515,61.95,3.1973180629692517,1.5013506921358808,0
smt_5349,5.23720148580967,163.8,3.197314704401508,1.58335191116909,0
smt_18803,5.236551386464709,163.8,3.196917818354523,1.5829568278876192,0
smt_13454,5.235887620932431,163.8,3.1965125890918378,1.5825540671921035,0
smt_19377,5.235098656673742,163.8,3.1960309259302453,1.5820761670458288,0
smt_29411,5.234106867428458,163.8,3.1954254379905107,1.5814766930235657,0
smt_8954,5.233497558537125,163.8,3.195053454540369,1.5811091166638687,0
smt_5584,5.232787336140182,163.8,3.194619863333444,1.5806813500410526,0
rbt_605810,2.44366373366999,76.65,3.188080539686875,1.4983572009710213,0
rbt_605864,2.871853024421281,90.3,3.1803466494144867,1.4957236084708612,0
smt_37837,6.850379704501206,216.3,3.1670733724000026,1.7953238339635096,0
smt_37841,6.850058123138653,216.3,3.1669246986309076,1.795294392517924,0
rbt_609682,2.421189605847272,76.65,3.158760085906421,1.485907495885316,0
rbt_622703,1.942700337081623,61.95,3.135916605458632,2.375432458452709,0
rbt_605835,2.8309763154120913,90.3,3.1350789760931246,1.4758029787751992,0
smt_7052,5.1336659812262555,163.8,3.1341062156448447,1.7176480092613466,0
sbt_14006,5.124360635110088,163.8,3.128425296160005,1.4710631948389061,0
sbt_27416,6.672129230101189,216.3,3.0846644614429906,1.450539139388572,0
sbt_15213,6.672129184014663,216.3,3.084664440136229,1.4505391294434904,0
rbt_606128,2.3513493247468813,76.65,3.0676442592914297,1.441615192738891,0
rbt_1607257,2.7451690543198533,90.3,3.040054323720768,1.428958767168127,0
rbt_607385,2.74002923980499,90.3,3.03436239181062,1.4271049122482193,0
rbt_3405845,2.7311680408383063,90.3,3.024549325402333,1.4236886590292548,0
rbt_633056,2.7274003484078206,90.3,3.0203769085357925,1.4199808283057493,0
rbt_606141,2.724706056121362,90.3,3.0173931961476876,1.4202949785889025,0
rbt_623015,2.717188918766344,90.3,3.009068570062397,2.2790924801185564,0
sbt_34389,3.838093624444206,128.1,2.996169886373307,2.3052326095514335,0
rbt_605982,2.6622858527516726,90.3,2.948267832504621,1.3869856557635447,0
rbt_1606000,2.660802736888974,90.3,2.9466254007629833,1.3852833540743739,0
smt_37855,6.349672454509114,216.3,2.935585970646839,1.5530454897839077,0
smt_37854,6.349341626914153,216.3,2.9354330221517118,1.5530717215783854,0
smt_37853,6.349037252137087,216.3,2.935292303345856,1.5531033641034757,0
smt_37852,6.348724893201398,216.3,2.935147893296994,1.5531302520577024,0
smt_37851,6.348430744937307,216.3,2.935011902421316,1.5531623565240198,0
smt_37850,6.348124847610817,216.3,2.9348704797091156,1.5531930180136648,0
smt_37849,6.347820259230928,216.3,2.934729662150221,1.55322661685835,0
smt_37848,6.347504854526987,216.3,2.934583843979189,1.5532589247800184,0
smt_37847,6.347190700581041,216.3,2.9344386040596584,1.5532703516301103,0
smt_37846,6.346969936568423,216.3,2.9343365402535473,1.5533120257628497,0
smt_37845,6.346668655224188,216.3,2.9341972516061894,1.5533485850075686,0
smt_38000,6.346347583901178,216.3,2.9340488136390097,1.5533716545330618,0
smt_38002,6.346075725564396,216.3,2.933923127861487,1.553339402813225,0
smt_38001,6.346068674190175,216.3,2.9339198678641583,1.553341286590647,0
smt_37843,6.346057975045605,216.3,2.9339149214265396,1.5534086159327847,0
smt_37842,6.345761962119208,216.3,2.9337780684785977,1.5534076442568983,0
smt_37838,6.345609002404184,216.3,2.93370735201303,1.5534460706352304,0
rbt_1629639,2.64860100828976,90.3,2.9331129659908752,1.3780493429831966,0
sbt_3952,4.790681969103294,163.8,2.9247142668518276,1.3762685948386704,0
sbt_4120,4.790680535824767,163.8,2.9247133918344117,1.3762676709364092,0
sbt_20855,4.790679140431301,163.8,2.924712539945849,1.376266777749019,0
sbt_20854,4.79067781676809,163.8,2.924711731848651,1.376265936007789,0
rbt_635963,1.8101991717895292,61.95,2.922032561403598,1.3725357635362976,0
smt_25186,4.734790704178062,163.8,2.890592615493322,1.5895287639022364,0
rbt_626481,2.6039003366905744,90.3,2.88361056111913,1.3553910076352003,0
rbt_1607306,2.1959302948113906,76.65,2.8648797062118594,1.3469838070601146,0
rbt_605901,2.5782947034232975,90.3,2.85525437809889,1.3416173508001448,0
rbt_605820,2.1854223855595545,76.65,2.851170757416248,1.340916354473246,0
rbt_3405847,2.57333016743133,90.3,2.8497565530801,1.3412714416315845,0
rbt_1607289,2.1704160257857756,76.65,2.8315929886311486,1.330630585280607,0
sbt_34000,6.124683155161932,216.3,2.831568726380921,1.3308637497955667,0
sbt_20828,4.5959879388633,163.8,2.805853442529487,1.3187781016826878,0
rbt_1609690,2.495457731909436,90.3,2.7635190829561864,1.298464347917874,0
sbt_34382,3.514105273989044,128.1,2.7432515800070605,1.2891193596240949,0
rbt_1625170,2.47535588599191,90.3,2.7412579025381065,1.2881053528623834,0
rbt_605821,3.4999165279927813,128.1,2.732175275560329,1.283716708643383,0
sbt_35105,3.49235750592039,128.1,2.7262743996255976,1.2813865813359868,0
smt_37856,5.85517138753386,216.3,2.7069678167054367,1.4582039633124788,0
rbt_605988,2.443967269997217,90.3,2.7064975304509598,1.2736197530812434,0
smt_15243,4.427478026800054,163.8,2.7029780383394715,1.5592491434719324,0
smt_26472,4.4270770232055465,163.8,2.702733225400211,1.5592544021341561,0
smt_14780,4.426622779288432,163.8,2.702455909211497,1.5592512169535155,0
smt_14754,4.426169782651862,163.8,2.702179354488316,1.5592488853437567,0
smt_14729,4.4257193185181665,163.8,2.701904345859686,1.563519553949843,0
smt_21229,4.42526230917851,163.8,2.701625341378822,1.5635127700764688,0
smt_26474,4.424831912999979,163.8,2.7013625842490714,1.5635028357583118,0
smt_22453,4.424452510959873,163.8,2.7011309590719614,1.5635156863909208,0
smt_14544,4.42399703915416,163.8,2.7008528932565077,1.5635162997280323,0
smt_14113,4.423542422735451,163.8,2.700575349655342,1.5635259418994008,0
smt_22508,4.423043988384298,163.8,2.7002710551796687,1.5635186759353035,0
smt_14452,4.422604847021434,163.8,2.7000029591095447,1.5635097895757157,0
smt_30311,4.422236544544211,163.8,2.699778110222351,1.5635295136349427,0
smt_26478,4.42178260889474,163.8,2.699500982231221,1.5635207922194867,0
smt_6512,7.685032249092187,286.65,2.6809810741643774,1.6144878351477037,0
smt_6425,7.684663016107959,286.65,2.6808522644716413,1.6144261711131753,0
smt_6930,7.684097484140885,286.65,2.680654974408123,1.61432693006904,0
rbt_605804,1.656483301628509,61.95,2.6739036345900065,1.256588911342659,0
sbt_6048,4.331556435773568,163.8,2.644417848457612,1.2443396459020903,0
rbt_605829,2.3817519592823793,90.3,2.637599068972735,1.2399346794796482,0
smt_22686,7.546141030487464,286.65,2.6325278320207444,1.6549763228120773,0
smt_6239,7.545705265097245,286.65,2.632375811999737,1.6548983966074857,0
smt_23961,7.5452799824209995,286.65,2.632227448952032,1.6548227414411238,0
smt_29407,7.544847436418992,286.65,2.632076552038721,1.6547452943016203,0
smt_6278,7.544460088619277,286.65,2.631941422856891,1.6546774563357038,0
smt_6630,7.544008536425577,286.65,2.6317838954912185,1.654597614259395,0
smt_19070,7.543554910408096,286.65,2.6316256446565838,1.6545175735149087,0
sbt_15045,5.691980448349424,216.3,2.631521242879993,1.2377086694300072,0
smt_6639,7.543101630317091,286.65,2.6314675145009914,1.6544373814735394,0
smt_19117,7.542678587984185,286.65,2.631319933013845,1.6543627179608464,0
smt_856,4.309551805930129,163.8,2.6309840085043517,1.5258306564950759,0
smt_15622,4.3090542815697725,163.8,2.6306802695786153,1.5257950167744392,0
smt_23196,4.308777910699543,163.8,2.6305115449936163,1.5258015608369764,0
smt_15581,4.308481735255114,163.8,2.6303307297039766,1.5258096909423078,0
smt_15568,4.308161263767028,163.8,2.630135081664852,1.5258123617995631,0
smt_21514,7.525472490343113,286.65,2.6253174569485833,1.6492464284672523,0
smt_5615,7.525033447031239,286.65,2.6251642934000485,1.6491648841972146,0
smt_18742,7.524691575557721,286.65,2.6250450289753084,1.6491042593708525,0
smt_6270,7.524154735989143,286.65,2.624857748469961,1.6490049382698286,0
smt_5967,7.523737264396969,286.65,2.624712110377453,1.6489296450987743,0
smt_5772,7.523244876372955,286.65,2.6245403371264455,1.6488400651877224,0
smt_6158,7.522757981296655,286.65,2.624370480131399,1.6487510421035492,0
smt_6263,7.52233638016513,286.65,2.6242234014181514,1.648675906537056,0
smt_6384,7.521813616990725,286.65,2.6240410315683675,1.6485814473984408,0
smt_22684,7.521302207134488,286.65,2.6238626224086823,1.6484883053971284,0
smt_22685,7.520885007291775,286.65,2.62371707911801,1.6484136410256918,0
smt_29447,7.520447671151315,286.65,2.623564511129013,1.6483356841096706,0
smt_19065,7.5199792367243905,286.65,2.6234010942698034,1.6482527462533139,0
smt_24385,7.519450034087634,286.65,2.623216477965336,1.6481582860664161,0
rbt_1607316,2.355519070239244,90.3,2.6085482505417987,1.9765490450497145,0
rbt_1107342,1.6157187633179333,61.95,2.6081013128618777,1.226235470600827,0
smt_29448,7.470517402787998,286.65,2.6061459629471475,1.636596444590012,0
smt_6824,7.470094068931511,286.65,2.605998279759816,1.636515397254468,0
smt_6855,7.469640220626561,286.65,2.6058399513785315,1.6364290565552189,0
smt_19062,7.469110312613447,286.65,2.6056550889982373,1.6363269058999974,0
smt_7054,7.468689194314422,286.65,2.6055081787247243,1.636246683562492,0
smt_6446,7.468258995495651,286.65,2.605358100643869,1.6361649197815291,0
smt_39006,7.467818305218851,286.65,2.6052043625392822,1.6360808673071763,0
smt_39008,7.467420156277629,286.65,2.6050654652983183,1.6360020488181366,0
smt_39007,7.467403375554122,286.65,2.6050596112172064,1.636002121416176,0
smt_6122,7.467021338682598,286.65,2.6049263347924643,1.6359308018710645,0
smt_18741,7.466539313058367,286.65,2.6047581765422527,1.6358395441356777,0
smt_5938,7.4660928098813395,286.65,2.6046024105638725,1.6357561797924944,0
smt_5946,7.465577310574776,286.65,2.604422574768804,1.6356589889564186,0
smt_37925,5.5950829479673105,216.3,2.5867235080755018,1.3994788264849871,0
smt_37924,5.594935362278729,216.3,2.58665527613441,1.39953917755113,0
smt_37923,5.594619613700675,216.3,2.586509298983206,1.3995784573628216,0
smt_37864,5.59430848017778,216.3,2.586365455468229,1.3995777320637737,0
smt_37863,5.59416111983397,216.3,2.586297327708724,1.3995967751379796,0
smt_37862,5.594013942992269,216.3,2.5862292847860693,1.3996399678287121,0
smt_37861,5.593770903352398,216.3,2.586116922493018,1.39968471976546,0
smt_37860,5.5934767764405455,216.3,2.585980941488925,1.3997276856811667,0
smt_37859,5.593166739010394,216.3,2.585837604720478,1.3997490152747913,0
smt_37858,5.592935812251364,216.3,2.5857308424648004,1.3998025418940454,0
smt_37831,5.592616616222884,216.3,2.5855832714853832,1.3998030634144856,0
smt_37898,5.5785342778610145,216.3,2.5790727128344955,1.3902754259589212,0
smt_37897,5.578178387218471,216.3,2.5789081771698896,1.39029383324152,0
smt_37896,5.577869270943556,216.3,2.5787652662707146,1.39032312213883,0
smt_37895,5.577537814679655,216.3,2.5786120271288278,1.3903488416539809,0
smt_37894,5.57721177181484,216.3,2.5784612907142113,1.3903719083042592,0
smt_37893,5.576903496677234,216.3,2.5783187686903535,1.390400364192603,0
smt_37892,5.576581814213037,216.3,2.5781700481798597,1.3904250672882474,0
smt_37891,5.57627164732412,216.3,2.578026651559926,1.3904556970575055,0
smt_37890,5.575941938501804,216.3,2.577874220296719,1.390508864011265,0
smt_37889,5.575496618110164,216.3,2.5776683393944353,1.3905007617492202,0
smt_37888,5.575272909418109,216.3,2.577564914201622,1.390518582612373,0
smt_37887,5.5750587911915925,216.3,2.577465922880995,1.39056297958896,0
smt_37886,5.574727542576564,216.3,2.5773127797395117,1.390590464065973,0
smt_37885,5.574408492483027,216.3,2.577165276228861,1.3906205233743494,0
smt_37884,5.574086297216527,216.3,2.577016318639171,1.3906507745819583,0
smt_37883,5.573763135687674,216.3,2.5768669143262475,1.3906833862355306,0
smt_37882,5.573430385702425,216.3,2.5767130770700066,1.3907127501227696,0
smt_37881,5.573108767112922,216.3,2.5765643860901166,1.390744910503518,0
smt_37880,5.572782470899599,216.3,2.5764135325472024,1.3907725038457919,0
smt_37879,5.572475833838836,216.3,2.5762717678404234,1.3908098829286069,0
smt_37878,5.572137857463157,216.3,2.576115514314913,1.3908392662464168,0
smt_37877,5.5718200553490105,216.3,2.5759685877711562,1.3908741190971599,0
smt_37876,5.57149071807597,216.3,2.5758163282829263,1.3909082599588907,0
smt_37875,5.5711599935547556,216.3,2.575663427440941,1.3909429053243823,0
smt_37874,5.570828075820099,216.3,2.575509974951502,1.390975604029367,0
smt_37873,5.5705058117988395,216.3,2.575360985575053,1.3910045481528923,0
smt_37945,5.570206748941901,216.3,2.5752227225806292,1.3910168734471684,0
smt_37944,5.569993616015684,216.3,2.5751241867848744,1.391048317106841,0
smt_37943,5.569744127150482,216.3,2.5750088428804814,1.3910857131928391,0
smt_37942,5.569450792816417,216.3,2.574873228301626,1.3911174692082795,0
smt_37941,5.569160025027811,216.3,2.57473880029025,1.391149205480121,0
smt_37940,5.568872042057893,216.3,2.574605659758619,1.391182999869861,0
smt_37939,5.568578082979002,216.3,2.5744697563472037,1.3912178330428475,0
smt_37938,5.568278016449943,216.3,2.5743310293342314,1.39125306870657,0
smt_37937,5.567974549351859,216.3,2.5741907301672944,1.391286977451631,0
smt_37936,5.5676763835583385,216.3,2.5740528819039934,1.3913218810476868,0
smt_37935,5.567378175788213,216.3,2.5739150142340326,1.3913502634089774,0
smt_37934,5.567108517818672,216.3,2.573790345732164,1.3913884076760998,0
smt_37933,5.56681392029705,216.3,2.573654147155363,1.3914242363154774,0
smt_37932,5.56651775318183,216.3,2.573517222922714,1.3914602137994188,0
smt_23147,4.206212940176532,163.8,2.5678955678733404,1.5005040179308935,0
smt_16038,4.205930202481921,163.8,2.567722956338169,1.5006070011804906,0
sbt_22669,5.551436779092442,216.3,2.56654497415277,1.2065681076656811,0
rbt_3405987,1.589748418338143,61.95,2.566179852038972,1.2079864156348104,0
rbt_1132012,2.3074528644269376,90.3,2.555318786740795,1.2009461650190068,0
rbt_1607268,1.9562340115307248,76.65,2.55216439860499,1.199319209509616,0
smt_37986,5.509277160886927,216.3,2.5470537036000587,1.410348102551495,0
smt_37987,5.509046698867483,216.3,2.546947156203182,1.410360877697907,0
smt_37993,5.5087523298384085,216.3,2.5468110632632492,1.4103439950769772,0
smt_37920,5.508605184452255,216.3,2.546743034883151,1.4103772675295099,0
smt_37919,5.508248097191154,216.3,2.5465779459968347,1.4103825742321845,0
smt_37918,5.507897678802745,216.3,2.5464159402694153,1.4103868549280054,0
smt_37917,5.5075625653465545,216.3,2.546261010331278,1.4103949950019612,0
smt_37916,5.507217392132436,216.3,2.546101429557298,1.4104014824318056,0
smt_37915,5.506877016821464,216.3,2.5459440669539823,1.4103956568933353,0
smt_37914,5.506624231679621,216.3,2.5458271991121686,1.410413307310872,0
sbt_35588,5.506544430707981,216.3,2.5457903054590756,1.1963965304288304,0
smt_37913,5.50629336628266,216.3,2.545674233140388,1.410423839018674,0
smt_37912,5.505945297372476,216.3,2.5455133136257397,1.4104308238429268,0
smt_40685,5.505608297434057,216.3,2.545357511527534,1.4104366318784285,0
smt_37911,5.505289177698288,216.3,2.545209975819828,1.4103986163880788,0
smt_37910,5.505270475188545,216.3,2.545201329259614,1.410449622653266,0
smt_37909,5.504928101233972,216.3,2.545043042641688,1.4104582251321471,0
smt_37908,5.5045925805010185,216.3,2.544887924411012,1.4104704859975092,0
smt_40683,5.504241852979466,216.3,2.5447257757648942,1.4104772374598047,0
smt_37906,5.503915951897864,216.3,2.5445751048996135,1.4104893995235626,0
smt_37905,5.503578363358641,216.3,2.5444190306789833,1.4104966650062103,0
smt_37904,5.5032641784443035,216.3,2.544273776442119,1.4105073920461646,0
smt_37903,5.502949148460099,216.3,2.544128131511835,1.410505880399878,0
rbt_605823,2.297171047248264,90.3,2.543932499721223,1.1962345256649871,0
smt_13546,4.149525751120616,163.8,2.53328800434714,1.4836165236722005,0
smt_21225,4.149245147027593,163.8,2.533116695377041,1.483654548393342,0
smt_13930,4.148740567720005,163.8,2.5328086494017126,1.4836542352776136,0
smt_21226,4.14824083970527,163.8,2.5325035651436325,1.4836350527535522,0
smt_13280,4.147861320412284,163.8,2.5322718683835674,1.483633840501881,0
smt_14437,4.14750020300943,163.8,2.5320514059886627,1.4836371197477938,0
smt_13955,4.147136280201197,163.8,2.5318292308920616,1.4836415326310852,0
smt_26469,4.146767776140648,163.8,2.5316042589381245,1.4836372521543675,0
smt_20808,4.14644587327227,163.8,2.5314077370404577,1.4836445164371261,0
smt_23095,4.146108948602638,163.8,2.5312020443239547,1.483618188030964,0
smt_20807,4.145939100573404,163.8,2.5310983519984154,1.4836568059235011,0
smt_13717,4.145581140454397,163.8,2.5308798171272264,1.4836495529981686,0
smt_37963,5.460917631538568,216.3,2.524696084853707,1.3889140365769241,0
smt_37983,5.460478162247742,216.3,2.5244929090373285,1.3889171310526718,0
smt_37984,5.460031671112585,216.3,2.5242864868759063,1.3889188642038335,0
smt_37985,5.459592600237012,216.3,2.5240834952552067,1.3889211419828598,0
smt_37947,5.459160843756438,216.3,2.523883885231825,1.3889197335939245,0
smt_37948,5.458766050624882,216.3,2.5237013641354054,1.3889252165486576,0
sbt_21281,4.123012875625531,163.8,2.5171018776712644,1.1826505562546987,0
smt_14797,4.100454009816439,163.8,2.5033296763226125,1.4671347070965435,0
smt_23041,4.100092367346543,163.8,2.5031088933739576,1.467130857782392,0
smt_14823,4.099726074687735,163.8,2.5028852714821337,1.467127650966302,0
smt_13752,4.099354681799994,163.8,2.5026585358974325,1.4670641500986914,0
smt_23225,4.08253044296616,163.8,2.492387327818168,1.4605361012893727,0
smt_21220,4.082119266013544,163.8,2.4921363040375724,1.4605273819747921,0
smt_14845,4.081689964448112,163.8,2.491874215169788,1.46051878960683,0
smt_26425,4.081245795019412,163.8,2.4916030494624004,1.4605082729759822,0
smt_20810,4.080804715146534,163.8,2.4913337699307285,1.46048851006167,0
smt_26429,4.080433493790145,163.8,2.491107139066022,1.460481388714842,0
smt_26430,4.080065512854557,163.8,2.4908824864801935,1.4604752030074477,0
rbt_605989,2.2442206954193393,90.3,2.4852942363447834,1.1680199055852352,0
smt_21222,4.068517609730755,163.8,2.48383248457311,1.4544520529602307,0
smt_14301,4.068229436603365,163.8,2.483656554702909,1.4544534660485569,0
smt_23277,4.067865561030225,163.8,2.483434408443361,1.4544378030853515,0
smt_26427,4.0675235075811615,163.8,2.4832255846038835,1.4544299281183533,0
smt_20812,4.067163234455547,163.8,2.483005637640749,1.4544194994801651,0
smt_15154,4.066802397785928,163.8,2.4827853466336554,1.4544064172842015,0
smt_14674,4.066462316565887,163.8,2.4825777268412006,1.454408986074114,0
rbt_1121173,2.24062406297629,90.3,2.4813112546802767,1.167037438622904,0
rbt_605807,2.234864718360763,90.3,2.474933242924433,1.1642827736706742,0
rbt_606130,1.8822025311751565,76.65,2.455580601663609,1.1538177820506272,0
sbt_3491,4.016076737376301,163.8,2.4518172999855317,1.152458712117745,0
rbt_637399,1.5099857168017023,61.95,2.437426500083458,1.1453598671200904,0
sbt_21191,3.9837991097183383,163.8,2.432111788594834,1.143414563016697,0
sbt_26310,3.93122761845403,163.8,2.400016861083046,1.1284660074557933,0
rbt_637705,2.1546148426695173,90.3,2.3860629486927105,1.807388843194311,0
rbt_1105833,2.1479795011408505,90.3,2.378714840687542,1.1181107861956114,0
smt_29426,5.134387811901039,216.3,2.3737345408696435,1.3010671671818181,0
rbt_1607276,2.139019335183659,90.3,2.3687921762831214,1.1130212666327168,0
smt_37960,5.05450667006631,216.3,2.3368038234240918,1.3169524662608194,0
smt_37962,5.054130412596265,216.3,2.336629871750469,1.3169572040485116,0
rbt_1607319,2.1059216172763486,90.3,2.332139111048005,1.6565436047164972,0
rbt_622709,2.103345742072623,90.3,2.3292865360715647,1.095045114636491,0
smt_37981,5.037692705472269,216.3,2.329030377009833,1.2950278440450738,0
smt_37951,5.037339790325578,216.3,2.3288672169790003,1.295031923160743,0
smt_37952,5.036986390857773,216.3,2.3287038330364185,1.2950481781069503,0
smt_37953,5.036551528135474,216.3,2.32850278693272,1.295051985459268,0
smt_37954,5.036132782657704,216.3,2.3283091921672234,1.297086293962094,0
smt_37955,5.035678567066223,216.3,2.328099198828582,1.2970804837395133,0
smt_37956,5.035313504773843,216.3,2.327930422919021,1.29709672710234,0
smt_37957,5.034881888962302,216.3,2.327730877929867,1.2971045420164955,0
smt_37958,5.0344529145489805,216.3,2.3275325541141845,1.2971145604713754,0
smt_37959,5.034015948324403,216.3,2.3273305355175236,1.2971229112151434,0
rbt_1607328,2.101414972138905,90.3,2.327148363387492,1.094216816352137,0
rbt_607366,2.1002205612957585,90.3,2.32582564927548,1.0929650830999338,0
sbt_21953,3.747372279885846,163.8,2.2877730646433734,1.0765898494943973,0
sbt_21849,3.7473722194553076,163.8,2.2877730277504926,1.0765898319141858,0
sbt_21968,3.7473721462537712,163.8,2.2877729830609104,1.076589810666387,0
smt_37979,4.925221972819452,216.3,2.2770328122142636,1.2822195387594262,0
smt_37980,4.9248430797101665,216.3,2.2768576420296656,1.2822002138825328,0
rbt_1633892,2.029687060970508,90.3,2.2477154606539407,1.0563859102630395,0
sbt_21137,3.680984824483505,163.8,2.247243482590662,1.0568345568569415,0
rbt_1134165,2.0251276727130727,90.3,2.2426663042226718,1.0552196578134951,0
rbt_1131858,2.023856969556533,90.3,2.2412591024989292,1.0542629306647082,0
smt_6074,6.41927102733573,286.65,2.2394107892327684,1.3358871402870225,0
smt_6082,6.418824555676173,286.65,2.239255034249494,1.3358231281194997,0
smt_6649,6.418384620002564,286.65,2.2391015593938826,1.335760196719159,0
smt_29408,6.41795455245825,286.65,2.238951527109105,1.3356992883022363,0
smt_6422,6.417523640519461,286.65,2.2388012002509896,1.3356385612248836,0
smt_22683,6.417090585283693,286.65,2.2386501256876654,1.3355776616568604,0
smt_22793,6.4001112942464005,286.65,2.232726772805303,1.3230650886835378,0
smt_22790,6.399658351065332,286.65,2.232568760183266,1.3229954922513596,0
smt_29449,6.399385628948933,286.65,2.232473619029804,1.3237843433670398,0
smt_6370,6.399221172573834,286.65,2.2324162471912907,1.3229290361401862,0
smt_6401,6.398949818571121,286.65,2.232321583314538,1.3237203860638507,0
smt_29409,6.398781787804289,286.65,2.2322629645226897,1.3228630115780404,0
smt_21348,6.398511607109865,286.65,2.232168709963323,1.323670102876712,0
smt_5650,6.398321533052541,286.65,2.232102401204445,1.3227933669500165,0
smt_6094,6.3978672264832515,286.65,2.231943912954213,1.322722097535615,0
smt_29477,6.397518423601675,286.65,2.2318222304558435,1.3226720086114983,0
smt_29450,6.397092208438931,286.65,2.231673542103238,1.322609596627475,0
smt_6231,6.396623691540906,286.65,2.231510096473367,1.322539098779924,0
smt_6340,6.396184704666816,286.65,2.2313569526135764,1.322474508539152,0
rbt_1607353,2.0060461303560153,90.3,2.2215350280797512,1.044075616863169,0
sbt_34390,3.6262248824555723,163.8,2.2138125045516315,1.6769482781560516,0
smt_6581,6.338082424999052,286.65,2.211087537065778,1.2991312807551199,0
smt_6701,6.337640241431277,286.65,2.2109332780154465,1.2990695378557076,0
smt_21959,6.337154732659861,286.65,2.210763904643245,1.2989984704007156,0
smt_19219,6.329177314811948,286.65,2.2079809226624625,1.288936391546869,0
smt_5952,6.328707191012171,286.65,2.207816916452877,1.2888604548414115,0
smt_29478,6.328217002720808,286.65,2.207645910595084,1.2887798814040439,0
smt_22841,6.327785156563497,286.65,2.207495257827838,1.2887110245914253,0
smt_6660,6.327318740887109,286.65,2.207332545224877,1.2886356976940425,0
smt_22845,6.291542764662549,286.65,2.1948518278955347,1.2675995603767731,0
smt_18913,6.290996959189993,286.65,2.194661419567414,1.2675098213276788,0
smt_5786,6.290468051996909,286.65,2.194476906330685,1.2674220481510954,0
smt_29479,6.290012791465519,286.65,2.194318085283628,1.2673483159760448,0
smt_19224,6.289544987887404,286.65,2.194154888500752,1.2672730654147735,0
smt_25183,4.734158356162153,216.3,2.1887001184291046,1.2034294810285984,0
smt_25117,4.733512749895753,216.3,2.188401641190824,1.2031323619993763,0
smt_25116,4.732849195505016,216.3,2.1880948661604323,1.2028273206889708,0
smt_25115,4.732330098886198,216.3,2.1878548769700403,1.2025889274638133,0
smt_25114,4.7318745652694405,216.3,2.1876442742808324,1.2023798991136818,0
smt_25113,4.7313430186573955,216.3,2.1873985291989806,1.2021361971247086,0
smt_25112,4.730781605796651,216.3,2.187138976327624,1.2018790439833713,0
smt_25111,4.730413835532609,216.3,2.186968948466301,1.2017107231229343,0
smt_25110,4.7301482189193,216.3,2.1868461483676835,1.2015892225040619,0
smt_25109,4.7294477229383975,216.3,2.186522294469902,1.2012690644644342,0
smt_25108,4.728914474103504,216.3,2.1862757624149345,1.201025607883904,0
smt_25107,4.72819621530519,216.3,2.1859436963962966,1.2006980438318418,0
smt_25106,4.727569196598531,216.3,2.185653812574448,1.200412428702923,0
smt_25105,4.726927871694468,216.3,2.185357314699245,1.2001206247615215,0
smt_29427,4.726286330324656,216.3,2.1850607167474134,1.1998290552715978,0
smt_6407,4.725016767948655,216.3,2.184473771589762,1.1992530476204146,0
smt_22794,4.724385015058534,216.3,2.1841816990561878,1.1989669086784815,0
smt_6477,4.72368790152167,216.3,2.1838594089328107,1.198651546637256,0
smt_6641,4.722782418882782,216.3,2.183440785428933,1.198242520912337,0
smt_6157,4.72214674230393,216.3,2.1831468988922467,1.1979557784519204,0
smt_6694,4.721428919690083,216.3,2.1828150345307824,1.1976323859946538,0
sbt_20633,3.471810543661453,163.8,2.1195424564477734,1.398814147699971,0
smt_37973,4.564886783379886,216.3,2.1104423409060957,1.2164375184424803,0
smt_37991,4.56472429269991,216.3,2.1103672180767035,1.2164500031828986,0
smt_37974,4.564495301237865,216.3,2.1102613505491745,1.2164779389336149,0
smt_37990,4.56410502177355,216.3,2.110080916215233,1.2164810640640609,0
smt_37975,4.563744202064477,216.3,2.1099141017403964,1.216492969378318,0
smt_37976,4.563353878681754,216.3,2.1097336471020594,1.2165007921988256,0
smt_37977,4.562969092501296,216.3,2.109555752427784,1.2165070313515016,0
smt_37978,4.562603034237718,216.3,2.109386516059971,1.216522421598856,0
sbt_4619,4.53884636616347,216.3,2.0984033130667914,0.9863042989620601,0
smt_37970,4.522846902162673,216.3,2.091006427259673,1.206822406846119,0
smt_37971,4.52233581460046,216.3,2.0907701408231434,1.2067937426637945,0
smt_37972,4.522071713972336,216.3,2.090648041596087,1.2068133833256935,0
smt_37989,4.521694870019616,216.3,2.090473818779295,1.2068990663341386,0
smt_37964,4.421408809346209,216.3,2.044109481898386,1.1840037790461866,0
smt_37965,4.420077193109741,216.3,2.0434938479471754,1.184020904225951,0
smt_37994,4.419903470900376,216.3,2.0434135325475618,1.1839990267494813,0
smt_37995,4.419899360574526,216.3,2.043411632258218,1.1839993969544607,0
smt_37996,4.419894410281599,216.3,2.0434093436345813,1.1840427998781955,0
smt_37966,4.419593516550285,216.3,2.0432702341887583,1.1840584811024089,0
smt_37967,4.419225784641505,216.3,2.0431002240598723,1.1840675331426875,0
smt_37968,4.41884885647365,216.3,2.0429259623086686,1.1840749375732478,0
smt_37969,4.418479043500753,216.3,2.0427549900604496,1.1840708381963423,0
rbt_606110,1.2614523035311174,61.95,2.036242620712054,0.9567032135878403,0
rbt_1607284,1.8320188049647466,90.3,2.028813737502488,0.9537358616025783,0
rbt_1607302,1.2416029092783623,61.95,2.0042016291821825,0.9416322162275872,0
rbt_607382,1.7910474254735085,90.3,1.9834412242231547,0.9324475387062926,0
rbt_1607273,1.519059299698755,76.65,1.9818125240688256,0.9312022883912582,0
sbt_26614,3.2110371334300947,162.75,1.9729874859785528,1.494261444880337,0
sbt_26512,3.211035538404819,162.75,1.9729865059323004,1.4942604538067445,0
sbt_16246,3.2110349573180743,162.75,1.9729861488897538,1.4942600932854277,0
sbt_5828,3.2110322082758618,163.8,1.9603371234895368,1.4846798115106006,0
sbt_3790,3.1880610582671447,163.8,1.9463132223853141,0.9143703723190558,0
rbt_1137150,1.1986749811046067,61.95,1.9349071527112294,0.9095816148782204,0
rbt_3405843,1.74236744342027,90.3,1.9295320525141417,0.9072887349529778,0
rbt_1607288,1.4644028590275056,76.65,1.910506013082199,0.8979370869719593,0
rbt_605817,1.4568300030330519,76.65,1.900626227048991,0.8933443433284755,0
smt_13591,3.096472783078058,163.8,1.8903985244676786,0.9378034133092655,0
sbt_30492,2.351346950158283,124.95,1.8818302922435237,0.8843502473269488,0
rbt_607387,1.6905738192246345,90.3,1.872174772120304,0.8797940652665565,0
sbt_21147,2.395319661609089,128.1,1.8698826398197417,0.8786595558054473,0
sbt_17923,2.3953141643024862,128.1,1.8698783484016286,0.878655227179236,0
rbt_626695,1.6835256573997364,90.3,1.8643694987815465,1.4122502282708744,0
rbt_623432,1.6833718982352175,90.3,1.8641992228518467,0.8764920918582676,0
sbt_3473,3.0328846030812042,163.8,1.8515779017589769,0.8703318557653744,0
sbt_26790,3.9948818206085845,216.3,1.8469171616313382,0.8683627097141673,0
smt_18691,5.260133432603301,286.65,1.8350369553822787,0.9651384957086666,0
smt_18692,5.259440791847963,286.65,1.8347953224657119,0.9649689158584969,0
smt_22142,5.258823504847081,286.65,1.8345799772709164,0.9648182783578703,0
smt_29410,5.258263415147615,286.65,1.8343845857832255,0.9646820025697859,0
smt_4821,5.2577291678221725,286.65,1.8341982096013163,0.9645523735985048,0
smt_18693,5.257078692258214,286.65,1.833971286327652,0.9643950179565975,0
smt_5832,5.256479399097521,286.65,1.8337622184188107,0.9642505067515472,0
smt_18694,5.255851999807177,286.65,1.833543345476078,0.9640996954571682,0
smt_5643,5.255299172404166,286.65,1.8333504874949125,0.9639672154062149,0
smt_29483,5.254749839752963,286.65,1.8331588486840966,0.9638359507016675,0
smt_6014,5.254205872966892,286.65,1.832969081795532,0.9637063405124534,0
smt_18695,5.253578490285998,286.65,1.83275021464713,0.9635573164328983,0
smt_29482,5.253020801117623,286.65,1.8325556606026945,0.96342526319801,0
smt_6195,5.252436408684203,286.65,1.8323517909241946,0.9632873087532654,0
smt_6105,5.251850050336771,286.65,1.8321472354218635,0.9631493254050817,0
smt_19334,5.219550500026571,286.65,1.8208792953171362,0.9453094143296981,0
smt_19331,5.2189325973054945,286.65,1.820663735323738,0.9451237572692442,0
smt_22269,5.218325829705846,286.65,1.820452059900871,0.9449418038875708,0
sbt_34896,3.9054939193559592,216.3,1.8055912710845858,0.8487080943931821,0
sbt_34381,2.9168220273242547,163.8,1.7807216284030858,0.8370573383542467,0
rbt_605808,1.5784095395472584,90.3,1.7479618378153472,0.8212680474516952,0
rbt_1607326,1.575839042833678,90.3,1.7451152190849146,0.8204545430323004,0
smt_29480,4.982940015910818,286.65,1.7383359553151294,0.9612691024907387,0
smt_19271,4.9817968244081285,286.65,1.7379371443949516,0.961043254184892,0
smt_5537,4.981343059461873,286.65,1.7377788450939728,0.9609541271484273,0
smt_40375,2.846114490588215,163.8,1.7375546340587391,0.8646661721982188,0
smt_40374,2.8455618252928856,163.8,1.7372172315585384,0.8643396236265241,0
smt_40358,2.845012094985543,163.8,1.7368816208702949,0.8640156320601707,0
smt_40357,2.844433384094685,163.8,1.7365283175181225,0.8636754527690379,0
smt_40356,2.8439460363463844,163.8,1.7362307914202588,0.863389693114266,0
smt_40355,2.84338953576893,163.8,1.735891047477979,0.8630641887664875,0
smt_40354,2.8428241379141763,163.8,1.7355458717424763,0.8627343631327699,0
smt_40353,2.8422522413048177,163.8,1.7351967285133194,0.8624016574623786,0
smt_40352,2.841774868826233,163.8,1.7349052923237078,0.8621246478439967,0
smt_40351,2.8413225267928235,163.8,1.7346291372361557,0.8618627589187567,0
smt_40350,2.8407698032896533,163.8,1.7342916992000326,0.8615435446151354,0
smt_40349,2.840249411053241,163.8,1.733973999422003,0.861243803057647,0
smt_40373,2.839716468007911,163.8,1.7336486373674669,0.8609376420698647,0
smt_40348,2.8396928824621206,163.8,1.7336342383773629,0.8609241117787403,0
smt_40366,2.8392910449677364,163.8,1.7333889163417195,0.8560268933277605,0
smt_40380,2.8392474813000357,163.8,1.7333623206959925,0.8560000966667926,0
smt_40347,2.839127309191748,163.8,1.7332889555505178,0.86060014566217,0
smt_40367,2.8388622081010304,163.8,1.73312711117279,0.8557633075351672,0
smt_40346,2.838565072436328,163.8,1.7329457096680878,0.8602790167021984,0
smt_40368,2.8383634697278657,163.8,1.7328226310914931,0.8554573432751876,0
smt_40369,2.8380209832748866,163.8,1.732613542902861,0.8552476039435443,0
smt_40345,2.8379943812310366,163.8,1.7325973023388501,0.8599540090044071,0
smt_40344,2.837432477626791,163.8,1.7322542598454158,0.8596349470525501,0
smt_19274,4.96295551541938,286.65,1.7313642126005164,0.9494996282707852,0
smt_4942,4.962421738160215,286.65,1.7311780004047497,0.9493926773061795,0
smt_40362,2.8354077980400043,163.8,1.731018191721614,0.8536572774439758,0
smt_18740,4.9619009784433885,286.65,1.730996329476152,0.9492887199038642,0
smt_5191,4.961382687839061,286.65,1.7308155199159465,0.9491856344455715,0
smt_40378,2.835074538244185,163.8,1.7308147364128112,0.8534557491702794,0
smt_5198,4.960869357066165,286.65,1.7306364406300943,0.949083909258338,0
smt_40361,2.834533973754488,163.8,1.7304847214618362,0.853129487898153,0
smt_5549,4.960303678754645,286.65,1.7304390995132202,0.9489722443072459,0
smt_19273,4.959725197574363,286.65,1.7302372920196627,0.948858555851857,0
smt_40360,2.833968384479794,163.8,1.730139428864343,0.852788959174402,0
smt_5414,4.9592396491207325,286.65,1.7300679048040235,0.9487635122720172,0
smt_5522,4.958699841025251,286.65,1.7298795887058267,0.948658241526935,0
smt_40359,2.833434269063803,163.8,1.7298133510768026,0.8524681704542377,0
smt_40377,2.8327738297635845,163.8,1.7294101524808208,0.8520725805709469,0
smt_40376,2.832219296933172,163.8,1.7290716098493113,0.8517413454134312,0
smt_40861,4.9354512942568505,286.65,1.721769158994192,0.9340374611417692,0
smt_40860,4.9351022268870235,286.65,1.7216473842271145,0.9339670906758363,0
smt_40859,4.934735307829981,286.65,1.7215193817652124,0.9338933079030848,0
smt_40858,4.934363327730016,286.65,1.7213896137205709,0.9338187029776667,0
...